java/SFINA/configuration_files/experiment-Case118LineRemovalRandom/output/time_13/iteration_1/flow/links.txt
id,current,real_power_from,reactive_power_from,real_power_to,reactive_power_to,resistance,reactance,susceptance,rateA,rateB,rateC,ratio,angle,angmin,angmax
1,18.80929282605,20.0,0.0,-20.0,0.0,0.0303,0.0999,0.0254,0.0,0.0,23.413259815322455,0.0,0.0,-360.0,360.0
2,44.2369349171772,-71.00000000000006,0.0,71.00000000000006,0.0,0.0129,0.0424,0.01082,0.0,0.0,78.58674018467768,0.0,0.0,-360.0,360.0
3,106.863568752438,-85.46522136584292,0.0,85.46522136584292,0.0,0.00176,0.00798,0.0021,0.0,0.0,208.13925450057712,0.0,0.0,-360.0,360.0
4,71.9594066136644,-110.00000000000001,0.0,110.00000000000001,0.0,0.0241,0.108,0.0284,0.0,0.0,138.37946720752618,0.0,0.0,-360.0,360.0
5,88.3902450922353,67.66058953636586,0.0,-67.66058953636586,0.0,0.0119,0.054,0.01426,0.0,0.0,174.84392262930686,0.0,0.0,-360.0,360.0
6,36.22101758614,15.66058953636618,0.0,-15.66058953636618,0.0,0.00459,0.0208,0.0055,0.0,0.0,70.84392262930702,0.0,0.0,-360.0,360.0
7,443.03364508156,-348.0000000000003,0.0,348.0000000000003,0.0,0.00244,0.0305,1.162,0.0,0.0,900.0,0.0,0.0,-360.0,360.0
8,355.393238467644,320.0000000000006,0.0,-320.0000000000006,0.0,0.0,0.0267,0.0,0.0,0.0,677.0009428792615,0.985,0.0,-360.0,360.0
9,427.573601023909,-348.00000000000034,0.0,348.00000000000034,0.0,0.00258,0.0322,1.23,0.0,0.0,900.0,0.0,0.0,-360.0,360.0
10,64.3588316808438,46.465221365842375,0.0,-46.465221365842375,0.0,0.0209,0.0688,0.01748,0.0,0.0,130.1392545005769,0.0,0.0,-360.0,360.0
11,77.1285290751481,56.87418909779153,0.0,-56.87418909779153,0.0,0.0203,0.0682,0.01738,0.0,0.0,155.63829854185187,0.0,0.0,-360.0,360.0
12,49.8422387446768,-0.6605895363659863,0.0,0.6605895363659863,0.0,0.00595,0.0196,0.00502,0.0,0.0,72.31055211807606,0.0,0.0,-360.0,360.0
13,39.2446465855863,-32.91837454987751,0.0,32.91837454987751,0.0,0.0187,0.0616,0.01572,0.0,0.0,63.41325981532238,0.0,0.0,-360.0,360.0
14,16.3210409669673,-26.288949657773188,0.0,26.288949657773188,0.0,0.0484,0.16,0.0406,0.0,0.0,18.20727297715149,0.0,0.0,-360.0,360.0
15,17.9084050039198,-3.339410463634239,0.0,3.339410463634239,0.0,0.00862,0.034,0.00874,0.0,0.0,32.84392262930682,0.0,0.0,-360.0,360.0
16,37.4518035052475,33.999999999999986,0.0,-33.999999999999986,0.0,0.02225,0.0731,0.01876,0.0,0.0,73.46700092435327,0.0,0.0,-360.0,360.0
17,18.6881168711301,13.999999999999947,0.0,-13.999999999999947,0.0,0.0215,0.0707,0.01816,0.0,0.0,40.456477124455894,0.0,0.0,-360.0,360.0
18,4.04792887487232,8.85207010214296,0.0,-8.85207010214296,0.0,0.0744,0.2444,0.06268,0.0,0.0,5.467000924353426,0.0,0.0,-360.0,360.0
19,5.36285370113633,13.614675410756721,0.0,-13.614675410756721,0.0,0.0595,0.195,0.0502,0.0,0.0,12.45647712445579,0.0,0.0,-360.0,360.0
20,8.74095177990947,-31.666812942411767,0.0,31.666812942411767,0.0,0.0212,0.0834,0.0214,0.0,0.0,19.077464830451014,0.0,0.0,-360.0,360.0
21,109.953151034631,10.999999999999998,0.0,-10.999999999999998,0.0,0.0132,0.0437,0.0444,0.0,0.0,212.06805467148894,0.0,0.0,-360.0,360.0
22,18.1869451282403,-56.666812942411774,0.0,56.666812942411774,0.0,0.0454,0.1801,0.0466,0.0,0.0,30.922535169548976,0.0,0.0,-360.0,360.0
23,84.4176489510002,88.16898580661142,0.0,-88.16898580661142,0.0,0.0123,0.0505,0.01298,0.0,0.0,162.68141910047066,0.0,0.0,-360.0,360.0
24,26.388280962282,-59.99999999999993,0.0,59.99999999999993,0.0,0.01119,0.0493,0.01142,0.0,0.0,42.68141910047059,0.0,0.0,-360.0,360.0
25,12.2805703803885,-11.030512106981751,0.0,11.030512106981751,0.0,0.0252,0.117,0.0298,0.0,0.0,22.061024213963503,0.0,0.0,-360.0,360.0
26,20.0945350232812,104.99999999999999,0.0,-104.99999999999999,0.0,0.012,0.0394,0.0101,0.0,0.0,26.706386727992417,0.0,0.0,-360.0,360.0
27,30.3589512346171,-17.99999999999999,0.0,17.99999999999999,0.0,0.0183,0.0849,0.0216,0.0,0.0,58.06102421396362,0.0,0.0,-360.0,360.0
28,44.7819782091996,-32.00000000000004,0.0,32.00000000000004,0.0,0.0209,0.097,0.0246,0.0,0.0,86.06102421396375,0.0,0.0,-360.0,360.0
29,55.3991159048143,-9.999999999999995,0.0,9.999999999999995,0.0,0.0342,0.159,0.0404,0.0,0.0,106.0610242139637,0.0,0.0,-360.0,360.0
30,13.3175789227064,12.999999999999998,0.0,-12.999999999999998,0.0,0.0135,0.0492,0.0498,0.0,0.0,41.340501828127415,0.0,0.0,-360.0,360.0
31,164.74164138493,-30.0,0.0,30.0,0.0,0.0156,0.08,0.0864,0.0,0.0,339.2723106827257,0.0,0.0,-360.0,360.0
32,91.461334839958,-0.0,0.0,0.0,0.0,0.0,0.0382,0.0,0.0,0.0,178.55540454845772,0.96,0.0,-360.0,360.0
33,139.655238555182,109.99999999999994,0.0,-109.99999999999994,0.0,0.0318,0.163,0.1764,0.0,0.0,279.2830938657321,0.0,0.0,-360.0,360.0
34,33.9680740715921,16.99999999999999,0.0,-16.99999999999999,0.0,0.01913,0.0855,0.0216,0.0,0.0,66.16639161412746,0.0,0.0,-360.0,360.0
35,17.6555205974219,16.875853714847874,0.0,-16.875853714847874,0.0,0.0237,0.0943,0.0238,0.0,0.0,32.166391614127505,0.0,0.0,-360.0,360.0
36,252.889252520131,2.2354683968773287E-15,0.0,-2.2354683968773287E-15,0.0,0.0,0.0388,0.0,0.0,0.0,456.5181304351416,0.96,0.0,-360.0,360.0
37,78.1493010296258,-184.0,0.0,184.0,0.0,0.00431,0.0504,0.514,0.0,0.0,166.9990571207385,0.0,0.0,-360.0,360.0
38,220.693846580333,126.66742782580317,0.0,-126.66742782580317,0.0,0.00799,0.086,0.908,0.0,0.0,449.4445954515423,0.0,0.0,-360.0,360.0
39,18.8216544168673,-100.99999999999977,0.0,100.99999999999977,0.0,0.0474,0.1563,0.0399,0.0,0.0,26.521093146494152,0.0,0.0,-360.0,360.0
40,12.5245672326773,-24.00000000000002,0.0,24.00000000000002,0.0,0.0108,0.0331,0.0083,0.0,0.0,15.833608385872571,0.0,0.0,-360.0,360.0
41,93.1687141596424,209.99999999999974,0.0,-209.99999999999974,0.0,0.0317,0.1153,0.1173,0.0,0.0,177.87078464063472,0.0,0.0,-360.0,360.0
42,33.4317096078692,-136.9999999999997,0.0,136.9999999999997,0.0,0.0298,0.0985,0.0251,0.0,0.0,61.31251523937908,0.0,0.0,-360.0,360.0
43,13.0689062264422,2.0045078434272128,0.0,-2.0045078434272128,0.0,0.0229,0.0755,0.01926,0.0,0.0,28.174066537336433,0.0,0.0,-360.0,360.0
44,8.80266450520798,45.0734053492769,0.0,-45.0734053492769,0.0,0.038,0.1244,0.03194,0.0,0.0,23.285145992306123,0.0,0.0,-360.0,360.0
45,11.43445320891,1.7342762626490562,0.0,-1.7342762626490562,0.0,0.0752,0.247,0.0632,0.0,0.0,1.4488300424260903,0.0,0.0,-360.0,360.0
46,4.20457888904693,0.3818938605620989,0.0,-0.3818938605620989,0.0,0.00224,0.0102,0.00268,0.0,0.0,1.387886565303494,0.0,0.0,-360.0,360.0
47,36.9859620054553,-33.38189386056202,0.0,33.38189386056202,0.0,0.011,0.0497,0.01318,0.0,0.0,67.38788656530386,0.0,0.0,-360.0,360.0
48,19.4643926123768,-22.99999999999998,0.0,22.99999999999998,0.0,0.0415,0.142,0.0366,0.0,0.0,22.714854007693955,0.0,0.0,-360.0,360.0
49,31.1061683287614,30.61810613943833,0.0,-30.61810613943833,0.0,0.00871,0.0268,0.00568,0.0,0.0,60.61211343469748,0.0,0.0,-360.0,360.0
50,105.843282397726,-89.6181061394382,0.0,89.6181061394382,0.0,0.00256,0.0094,0.00984,0.0,0.0,184.9925282140218,0.0,0.0,-360.0,360.0
51,279.397408138865,199.96638591203242,0.0,-199.96638591203242,0.0,0.0,0.0375,0.0,0.0,0.0,480.41232391926417,0.935,0.0,-360.0,360.0
52,55.5081735648332,26.99999999999998,0.0,-26.99999999999998,0.0,0.0321,0.106,0.027,0.0,0.0,112.88569585117216,0.0,0.0,-360.0,360.0
53,44.5906648880845,49.96638591203209,0.0,-49.96638591203209,0.0,0.0593,0.168,0.042,0.0,0.0,92.4313592810725,0.0,0.0,-360.0,360.0
54,66.1599886797628,215.92659465072336,0.0,-215.92659465072336,0.0,0.00464,0.054,0.422,0.0,0.0,159.92552213713884,0.0,0.0,-360.0,360.0
55,29.1645579599749,21.782717492048274,0.0,-21.782717492048274,0.0,0.0184,0.0605,0.01552,0.0,0.0,58.88569585117245,0.0,0.0,-360.0,360.0
56,15.9726705543016,37.3921616480601,0.0,-37.3921616480601,0.0,0.0145,0.0487,0.01222,0.0,0.0,36.88306814617088,0.0,0.0,-360.0,360.0
57,13.8949333325683,-16.033614087967965,0.0,16.033614087967965,0.0,0.0555,0.183,0.0466,0.0,0.0,17.566013013925705,0.0,0.0,-360.0,360.0
58,23.7382905469043,-36.99999999999999,0.0,36.99999999999999,0.0,0.041,0.135,0.0344,0.0,0.0,37.11693185382908,0.0,0.0,-360.0,360.0
59,17.0359517611057,-17.999999999999993,0.0,17.999999999999993,0.0,0.0608,0.2454,0.06068,0.0,0.0,28.17075517824931,0.0,0.0,-360.0,360.0
60,2.1953517734053,7.931679284830582,0.0,-7.931679284830582,0.0,0.0413,0.1681,0.04226,0.0,0.0,7.829244821750729,0.0,0.0,-360.0,360.0
61,33.7508609089979,-34.0,0.0,34.0,0.0,0.0224,0.0901,0.0224,0.0,0.0,60.17075517824924,0.0,0.0,-360.0,360.0
62,37.0065079620848,-32.422420873398565,0.0,32.422420873398565,0.0,0.04,0.1356,0.0332,0.0,0.0,68.07427627547418,0.0,0.0,-360.0,360.0
63,30.9800296040683,-21.610523390663587,0.0,21.610523390663587,0.0,0.038,0.127,0.0316,0.0,0.0,56.86729000005939,0.0,0.0,-360.0,360.0
64,15.7918562234858,-19.81189748273496,0.0,19.81189748273496,0.0,0.0601,0.189,0.0472,0.0,0.0,29.20698627541477,0.0,0.0,-360.0,360.0
65,14.1926937689378,-16.630546271883407,0.0,16.630546271883407,0.0,0.0191,0.0625,0.01604,0.0,0.0,28.68683812726878,0.0,0.0,-360.0,360.0
66,66.0729990896635,-74.516807043984,0.0,74.516807043984,0.0,0.0715,0.323,0.086,0.0,0.0,123.34147243387757,0.0,0.0,-360.0,360.0
67,66.0729990896635,-74.516807043984,0.0,74.516807043984,0.0,0.0715,0.323,0.086,0.0,0.0,123.34147243387757,0.0,0.0,-360.0,360.0
68,50.4305194930932,-54.577579126601435,0.0,54.577579126601435,0.0,0.0684,0.186,0.0444,0.0,0.0,98.09647890277495,0.0,0.0,-360.0,360.0
69,34.3361947450705,-39.811897482734985,0.0,39.811897482734985,0.0,0.0179,0.0505,0.01258,0.0,0.0,69.20698627541483,0.0,0.0,-360.0,360.0
70,53.9652408118616,55.212220598191976,0.0,-55.212220598191976,0.0,0.0267,0.0752,0.01874,0.0,0.0,102.12855060466062,0.0,0.0,-360.0,360.0
71,67.9931755186284,68.15772139316681,0.0,-68.15772139316681,0.0,0.0486,0.137,0.0342,0.0,0.0,126.27667992064863,0.0,0.0,-360.0,360.0
72,30.235268844363,29.637904015936723,0.0,-29.637904015936723,0.0,0.0203,0.0588,0.01396,0.0,0.0,56.13065246796991,0.0,0.0,-360.0,360.0
73,11.0380065193483,11.637904015936694,0.0,-11.637904015936694,0.0,0.0405,0.1635,0.04058,0.0,0.0,20.13065246796996,0.0,0.0,-360.0,360.0
74,14.6349201813689,-11.362095984063373,0.0,11.362095984063373,0.0,0.0263,0.122,0.031,0.0,0.0,25.86934753203015,0.0,0.0,-360.0,360.0
75,38.9887945386652,40.12781378391298,0.0,-40.12781378391298,0.0,0.073,0.289,0.0738,0.0,0.0,71.74978821401699,0.0,0.0,-360.0,360.0
76,38.4100607428115,39.85202124931564,0.0,-39.85202124931564,0.0,0.0869,0.291,0.073,0.0,0.0,71.25666252182442,0.0,0.0,-360.0,360.0
77,7.56220484587159,8.129770267878289,0.0,-8.129770267878289,0.0,0.0169,0.0707,0.0202,0.0,0.0,13.741060972931487,0.0,0.0,-360.0,360.0
78,19.9277319307197,21.733913651963206,0.0,-21.733913651963206,0.0,0.00275,0.00955,0.00732,0.0,0.0,35.227432571131715,0.0,0.0,-360.0,360.0
79,23.3181513323998,-24.318932620049427,0.0,24.318932620049427,0.0,0.00488,0.0151,0.00374,0.0,0.0,42.0576840882085,0.0,0.0,-360.0,360.0
80,25.9173069174987,-26.21222059819187,0.0,26.21222059819187,0.0,0.0343,0.0966,0.0242,0.0,0.0,44.12855060466052,0.0,0.0,-360.0,360.0
81,36.9816254975772,38.212220598192,0.0,-38.212220598192,0.0,0.0474,0.134,0.0332,0.0,0.0,68.12855060466066,0.0,0.0,-360.0,360.0
82,7.98834073197954,-9.519817377229957,0.0,9.519817377229957,0.0,0.0343,0.0966,0.0242,0.0,0.0,12.146027452678533,0.0,0.0,-360.0,360.0
83,19.7025977400146,21.519817377229934,0.0,-21.519817377229934,0.0,0.0255,0.0719,0.01788,0.0,0.0,36.146027452678744,0.0,0.0,-360.0,360.0
84,32.7706578051162,-26.245944870676702,0.0,26.245944870676702,0.0,0.0503,0.2293,0.0598,0.0,0.0,61.83139034025136,0.0,0.0,-360.0,360.0
85,29.635982833833,-24.80380093315704,0.0,24.80380093315704,0.0,0.0825,0.251,0.0569,0.0,0.0,57.826134605872284,0.0,0.0,-360.0,360.0
86,30.9982967148133,-26.04918005950802,0.0,26.04918005950802,0.0,0.0803,0.239,0.0536,0.0,0.0,60.729538853865876,0.0,0.0,-360.0,360.0
87,37.2800203301152,-30.551297112072117,0.0,30.551297112072117,0.0,0.04739,0.2158,0.05646,0.0,0.0,70.20125493885956,0.0,0.0,-360.0,360.0
88,44.1258217994215,-38.391397175528915,0.0,38.391397175528915,0.0,0.0317,0.145,0.0376,0.0,0.0,88.36865481268126,0.0,0.0,-360.0,360.0
89,52.7542184086961,-47.63722542800616,0.0,47.63722542800616,0.0,0.0328,0.15,0.0388,0.0,0.0,105.75095014075768,0.0,0.0,-360.0,360.0
90,113.16490889461,-116.9504610184615,0.0,116.9504610184615,0.0,0.00264,0.0135,0.01456,0.0,0.0,225.86574616850888,0.0,0.0,-360.0,360.0
91,12.2523582305537,0.5590638429325706,0.0,-0.5590638429325706,0.0,0.0123,0.0561,0.01468,0.0,0.0,18.502908644172493,0.0,0.0,-360.0,360.0
92,29.1615863069389,42.824327269620944,0.0,-42.824327269620944,0.0,0.00824,0.0376,0.0098,0.0,0.0,53.488680806829606,0.0,0.0,-360.0,360.0
93,171.458177385063,143.6216003718789,0.0,-143.6216003718789,0.0,0.0,0.0386,0.0,0.0,0.0,300.46871378541005,0.96,0.0,-360.0,360.0
94,171.458177385063,-143.62160037187877,0.0,143.62160037187877,0.0,0.00172,0.02,0.216,0.0,0.0,300.46871378541033,0.0,0.0,-360.0,360.0
95,34.1431124556827,47.412013716088744,0.0,-47.412013716088744,0.0,0.0,0.0268,0.0,0.0,0.0,65.10537711609643,0.985,0.0,-360.0,360.0
96,197.879860019741,-199.96638591203248,0.0,199.96638591203248,0.0,0.00901,0.0986,1.046,0.0,0.0,320.48680178212516,0.0,0.0,-360.0,360.0
97,197.724561766396,-191.03361408796752,0.0,191.03361408796752,0.0,0.00269,0.0302,0.38,0.0,0.0,365.5740909015067,0.0,0.0,-360.0,360.0
98,129.067736719765,-145.69169555627676,0.0,145.69169555627676,0.0,0.018,0.0919,0.0248,0.0,0.0,251.5764120207208,0.0,0.0,-360.0,360.0
99,129.067736719765,-145.69169555627676,0.0,145.69169555627676,0.0,0.018,0.0919,0.0248,0.0,0.0,251.5764120207208,0.0,0.0,-360.0,360.0
100,41.0591939153299,-61.6166088874465,0.0,61.6166088874465,0.0,0.0482,0.218,0.0578,0.0,0.0,72.59704188421401,0.0,0.0,-360.0,360.0
101,28.3127655280222,28.000000000000007,0.0,-28.000000000000007,0.0,0.0258,0.117,0.031,0.0,0.0,46.41718595312884,0.0,0.0,-360.0,360.0
102,72.3907716541402,-28.161986045564767,0.0,28.161986045564767,0.0,0.0,0.037,0.0,0.0,0.0,27.832948121215473,0.935,0.0,-360.0,360.0
103,53.8536980252017,50.617701623998975,0.0,-50.617701623998975,0.0,0.0224,0.1015,0.02682,0.0,0.0,102.41718595312884,0.0,0.0,-360.0,360.0
104,26.4079508252896,204.02163245452041,0.0,-204.02163245452041,0.0,0.00138,0.016,0.638,0.0,0.0,123.7720554375838,0.0,0.0,-360.0,360.0
105,56.1786661435422,-55.61052339066359,0.0,55.61052339066359,0.0,0.0844,0.2778,0.07092,0.0,0.0,96.18045187279063,0.0,0.0,-360.0,360.0
106,46.5781128680254,-38.38947660933826,0.0,38.38947660933826,0.0,0.0985,0.324,0.0828,0.0,0.0,76.93210539292265,0.0,0.0,-360.0,360.0
107,168.433586709267,-113.80163792020355,0.0,113.80163792020355,0.0,0.0,0.037,0.0,0.0,0.0,130.17032027267598,0.935,0.0,-360.0,360.0
108,105.856610060422,86.90179587675895,0.0,-86.90179587675895,0.0,0.03,0.127,0.122,0.0,0.0,185.05194066155332,0.0,0.0,-360.0,360.0
109,6.94576771092243,1.5331568561900064,0.0,-1.5331568561900064,0.0,0.00221,0.4115,0.10198,0.0,0.0,0.8683068071377562,0.0,0.0,-360.0,360.0
110,21.0858819859194,6.000000000000059,0.0,-6.000000000000059,0.0,0.00882,0.0355,0.00878,0.0,0.0,21.527804979010504,0.0,0.0,-360.0,360.0
111,3.64708096146956,15.601393710742395,0.0,-15.601393710742395,0.0,0.0488,0.196,0.0488,0.0,0.0,14.472195020989517,0.0,0.0,-360.0,360.0
112,10.7856764898907,12.000000000000004,0.0,-12.000000000000004,0.0,0.0446,0.18,0.04444,0.0,0.0,9.527804979010478,0.0,0.0,-360.0,360.0
113,12.4710626425578,-0.0,0.0,0.0,0.0,0.00866,0.0454,0.01178,0.0,0.0,12.000000000000018,0.0,0.0,-360.0,360.0
114,21.0467767729389,20.901795876758936,0.0,-20.901795876758936,0.0,0.0401,0.1323,0.03368,0.0,0.0,32.14060016261535,0.0,0.0,-360.0,360.0
115,10.1023571780118,0.7095987111607985,0.0,-0.7095987111607985,0.0,0.0428,0.141,0.036,0.0,0.0,0.2518423270651994,0.0,0.0,-360.0,360.0
116,108.116002861311,97.4561359298361,0.0,-97.4561359298361,0.0,0.0405,0.122,0.124,0.0,0.0,192.92710026338904,0.0,0.0,-360.0,360.0
117,54.6511909015255,-47.098204123241096,0.0,47.098204123241096,0.0,0.0123,0.0406,0.01034,0.0,0.0,103.85939983738469,0.0,0.0,-360.0,360.0
118,68.5773533387173,-62.33558932473723,0.0,62.33558932473723,0.0,0.0444,0.148,0.0368,0.0,0.0,129.72918162447021,0.0,0.0,-360.0,360.0
119,60.4619335772184,47.84043027320126,0.0,-47.84043027320126,0.0,0.0309,0.101,0.1038,0.0,0.0,80.73808153667001,0.0,0.0,-360.0,360.0
120,37.1152914376712,-35.30647886866772,0.0,35.30647886866772,0.0,0.0601,0.1999,0.04978,0.0,0.0,76.9512756224602,0.0,0.0,-360.0,360.0
121,45.6000101771226,45.147675694867914,0.0,-45.147675694867914,0.0,0.00376,0.0124,0.01264,0.0,0.0,84.7990625514199,0.0,0.0,-360.0,360.0
122,31.4703742227722,-25.852324305132058,0.0,25.852324305132058,0.0,0.00546,0.0244,0.00648,0.0,0.0,57.20093744858007,0.0,0.0,-360.0,360.0
123,102.947851609576,-95.59936423732286,0.0,95.59936423732286,0.0,0.017,0.0485,0.0472,0.0,0.0,203.34722669046985,0.0,0.0,-360.0,360.0
124,48.6001880477694,-44.157801576287234,0.0,44.157801576287234,0.0,0.0294,0.105,0.0228,0.0,0.0,93.92705232845515,0.0,0.0,-360.0,360.0
125,70.5260845611965,-64.85232430513209,0.0,64.85232430513209,0.0,0.0156,0.0704,0.0187,0.0,0.0,135.20093744858013,0.0,0.0,-360.0,360.0
126,44.2422032333139,-70.19836207979657,0.0,70.19836207979657,0.0,0.00175,0.0202,0.808,0.0,0.0,114.05762428974002,0.0,0.0,-360.0,360.0
127,87.8017158999924,-70.19836207979655,0.0,70.19836207979655,0.0,0.0,0.037,0.0,0.0,0.0,114.05762428974002,0.935,0.0,-360.0,360.0
128,17.7071067942848,-16.192147801461434,0.0,16.192147801461434,0.0,0.0298,0.0853,0.08174,0.0,0.0,35.46715924275502,0.0,0.0,-360.0,360.0
129,53.7665582008973,-57.38566658888695,0.0,57.38566658888695,0.0,0.0112,0.03665,0.03796,0.0,0.0,115.33372765009264,0.0,0.0,-360.0,360.0
130,29.267704122904,-31.235044042880755,0.0,31.235044042880755,0.0,0.0625,0.132,0.0258,0.0,0.0,62.711978181382456,0.0,0.0,-360.0,360.0
131,45.1263286871039,-46.15062254600619,0.0,46.15062254600619,0.0,0.043,0.148,0.0348,0.0,0.0,92.62174946871016,0.0,0.0,-360.0,360.0
132,38.2175272980682,-42.23504404288075,0.0,42.23504404288075,0.0,0.0302,0.0641,0.01234,0.0,0.0,84.71197818138246,0.0,0.0,-360.0,360.0
133,18.9652337751257,17.000000000000007,0.0,-17.000000000000007,0.0,0.035,0.123,0.0276,0.0,0.0,34.000000000000014,0.0,0.0,-360.0,360.0
134,15.8089852846713,-4.000000000000002,0.0,4.000000000000002,0.0,0.02828,0.2074,0.0445,0.0,0.0,7.999999999999997,0.0,0.0,-360.0,360.0
135,51.7383304350004,-54.78370976278867,0.0,54.78370976278867,0.0,0.02,0.102,0.0276,0.0,0.0,109.8484543138822,0.0,0.0,-360.0,360.0
136,72.3245148453941,-74.60195682609825,0.0,74.60195682609825,0.0,0.0239,0.173,0.047,0.0,0.0,149.48527333621038,0.0,0.0,-360.0,360.0
137,100.220616990491,-102.78370976278867,0.0,102.78370976278867,0.0,0.0139,0.0712,0.01934,0.0,0.0,205.8484543138822,0.0,0.0,-360.0,360.0
138,58.1194697383084,57.43151884602422,0.0,-57.43151884602422,0.0,0.0518,0.188,0.0528,0.0,0.0,114.83929851961253,0.0,0.0,-360.0,360.0
139,110.409924277862,108.29614386211186,0.0,-108.29614386211186,0.0,0.0238,0.0997,0.106,0.0,0.0,216.54752378823625,0.0,0.0,-360.0,360.0
140,4.71462138504936,2.727662708136058,0.0,-2.727662708136058,0.0,0.0254,0.0836,0.0214,0.0,0.0,5.3868223078487745,0.0,0.0,-360.0,360.0
141,200.549781062017,200.00231370153733,0.0,-200.00231370153733,0.0,0.0099,0.0505,0.0548,0.0,0.0,399.63030226102336,0.0,0.0,-360.0,360.0
142,63.4788333316128,63.88435700143982,0.0,-63.88435700143982,0.0,0.0393,0.1581,0.0414,0.0,0.0,127.64914778103528,0.0,0.0,-360.0,360.0
143,11.0746759437092,-7.272337291863935,0.0,7.272337291863935,0.0,0.0387,0.1272,0.03268,0.0,0.0,14.613177692151213,0.0,0.0,-360.0,360.0
144,59.3848534314288,61.34141431269193,0.0,-61.34141431269193,0.0,0.0258,0.0848,0.0218,0.0,0.0,122.57824616584357,0.0,0.0,-360.0,360.0
145,54.8922227704912,55.78192064180586,0.0,-55.78192064180586,0.0,0.0481,0.158,0.0406,0.0,0.0,111.45925882407141,0.0,0.0,-360.0,360.0
146,49.5082235772448,49.34141431269195,0.0,-49.34141431269195,0.0,0.0223,0.0732,0.01876,0.0,0.0,98.5782461658436,0.0,0.0,-360.0,360.0
147,42.2733651382626,46.326315398646365,0.0,-46.326315398646365,0.0,0.0132,0.0434,0.0111,0.0,0.0,92.84186844152212,0.0,0.0,-360.0,360.0
148,27.2562994564794,14.157337658126648,0.0,-14.157337658126648,0.0,0.0356,0.182,0.0494,0.0,0.0,29.373186465218026,0.0,0.0,-360.0,360.0
149,12.056055676614,-12.806481212574514,0.0,12.806481212574514,0.0,0.0162,0.053,0.0544,0.0,0.0,28.133431592662365,0.0,0.0,-360.0,360.0
150,22.3182628856739,25.859741548989746,0.0,-25.859741548989746,0.0,0.0269,0.0869,0.023,0.0,0.0,51.93311040406583,0.0,0.0,-360.0,360.0
151,35.4784275741398,21.46308660681171,0.0,-21.46308660681171,0.0,0.0183,0.0934,0.0254,0.0,0.0,43.98526628185642,0.0,0.0,-360.0,360.0
152,28.9621375253017,22.946989677943623,0.0,-22.946989677943623,0.0,0.0238,0.108,0.0286,0.0,0.0,46.37686118093145,0.0,0.0,-360.0,360.0
153,20.3855040934842,13.624733858579255,0.0,-13.624733858579255,0.0,0.0454,0.206,0.0546,0.0,0.0,27.731845314748792,0.0,0.0,-360.0,360.0
154,35.9315036971561,30.453917240011208,0.0,-30.453917240011208,0.0,0.0648,0.295,0.0472,0.0,0.0,60.73148952737035,0.0,0.0,-360.0,360.0
155,51.2396697842608,2.937278006861701,0.0,-2.937278006861701,0.0,0.0178,0.058,0.0604,0.0,0.0,5.262526144327021,0.0,0.0,-360.0,360.0
156,22.1682836877683,4.326315398646371,0.0,-4.326315398646371,0.0,0.0171,0.0547,0.01474,0.0,0.0,8.841868441522127,0.0,0.0,-360.0,360.0
157,23.1917864515122,-6.463086606811711,0.0,6.463086606811711,0.0,0.0173,0.0885,0.024,0.0,0.0,13.985266281856411,0.0,0.0,-360.0,360.0
158,5.65755362052982,-11.053010322056377,0.0,11.053010322056377,0.0,0.0397,0.179,0.0476,0.0,0.0,21.623138819068544,0.0,0.0,-360.0,360.0
159,22.8808533503136,-28.375266141420745,0.0,28.375266141420745,0.0,0.018,0.0813,0.0216,0.0,0.0,56.268154685251204,0.0,0.0,-360.0,360.0
160,27.8933352374557,-17.03708121660423,0.0,17.03708121660423,0.0,0.0277,0.1262,0.0328,0.0,0.0,33.897277832622414,0.0,0.0,-360.0,360.0
161,45.8913939078992,44.03708121660427,0.0,-44.03708121660427,0.0,0.0123,0.0559,0.01464,0.0,0.0,87.89727783262242,0.0,0.0,-360.0,360.0
162,40.6224944000425,-39.03708121660422,0.0,39.03708121660422,0.0,0.0246,0.112,0.0294,0.0,0.0,77.89727783262242,0.0,0.0,-360.0,360.0
163,121.682842397982,113.84375280294508,0.0,-113.84375280294508,0.0,0.016,0.0525,0.0536,0.0,0.0,227.68750560589007,0.0,0.0,-360.0,360.0
164,56.2286775205328,54.04585098304226,0.0,-54.04585098304226,0.0,0.0451,0.204,0.0541,0.0,0.0,108.09170196608449,0.0,0.0,-360.0,360.0
165,34.9413221417864,31.872200621123753,0.0,-31.872200621123753,0.0,0.0466,0.1584,0.0407,0.0,0.0,63.74440124224749,0.0,0.0,-360.0,360.0
166,44.7673791823344,42.21451648629833,0.0,-42.21451648629833,0.0,0.0535,0.1625,0.0408,0.0,0.0,84.42903297259663,0.0,0.0,-360.0,360.0
167,60.0791137819961,58.110396214012695,0.0,-58.110396214012695,0.0,0.0605,0.229,0.062,0.0,0.0,116.22079242802535,0.0,0.0,-360.0,360.0
168,50.1086736618035,47.91805160416605,0.0,-47.91805160416605,0.0,0.00994,0.0378,0.00986,0.0,0.0,95.83610320833196,0.0,0.0,-360.0,360.0
169,10.0260820959811,8.603743726340243,0.0,-8.603743726340243,0.0,0.014,0.0547,0.01434,0.0,0.0,17.207487452680486,0.0,0.0,-360.0,360.0
170,27.8341058739739,26.285860059647025,0.0,-26.285860059647025,0.0,0.053,0.183,0.0472,0.0,0.0,52.57172011929405,0.0,0.0,-360.0,360.0
171,27.3812314608407,24.242964304477095,0.0,-24.242964304477095,0.0,0.0261,0.0703,0.01844,0.0,0.0,48.48592860895419,0.0,0.0,-360.0,360.0
172,25.2528619293281,23.714139940352975,0.0,-23.714139940352975,0.0,0.053,0.183,0.0472,0.0,0.0,47.42827988070595,0.0,0.0,-360.0,360.0
173,25.2122809183595,22.24296430447699,0.0,-22.24296430447699,0.0,0.0105,0.0288,0.0076,0.0,0.0,44.48592860895398,0.0,0.0,-360.0,360.0
174,60.5656049268072,56.75703569552293,0.0,-56.75703569552293,0.0,0.03906,0.1813,0.0461,0.0,0.0,113.51407139104587,0.0,0.0,-360.0,360.0
175,19.8185433389849,14.242964304477015,0.0,-14.242964304477015,0.0,0.0278,0.0762,0.0202,0.0,0.0,28.485928608954175,0.0,0.0,-360.0,360.0
176,36.7068298105354,-35.99999999999998,0.0,35.99999999999998,0.0,0.022,0.0755,0.02,0.0,0.0,71.99999999999996,0.0,0.0,-360.0,360.0
177,78.0123397552247,68.0,0.0,-68.0,0.0,0.0247,0.064,0.062,0.0,0.0,136.00000000000009,0.0,0.0,-360.0,360.0
178,6.27948846628624,-2.966905167410259,0.0,2.966905167410259,0.0,0.00913,0.0301,0.00768,0.0,0.0,2.3250283471394697,0.0,0.0,-360.0,360.0
179,18.9702288819037,6.0,0.0,-6.0,0.0,0.0615,0.203,0.0518,0.0,0.0,9.674971652860599,0.0,0.0,-360.0,360.0
180,9.90507363071432,8.0,0.0,-8.0,0.0,0.0135,0.0612,0.01628,0.0,0.0,17.057364285731545,0.0,0.0,-360.0,360.0
181,22.0378370253568,21.999999999999975,0.0,-21.999999999999975,0.0,0.0164,0.0741,0.01972,0.0,0.0,42.9426357142683,0.0,0.0,-360.0,360.0
182,1.43274743110818,-3.95214274232508,0.0,3.95214274232508,0.0,0.0023,0.0104,0.00276,0.0,0.0,1.0573642857317425,0.0,0.0,-360.0,360.0
183,195.084628436798,184.00000000000003,0.0,-184.00000000000003,0.0,3.4E-4,0.00405,0.164,0.0,0.0,367.9999999999999,0.0,0.0,-360.0,360.0
184,21.0221579240719,20.000000000000014,0.0,-20.000000000000014,0.0,0.0329,0.14,0.0358,0.0,0.0,39.99999999999999,0.0,0.0,-360.0,360.0
185,48.1964804627491,38.66441067526273,0.0,-38.66441067526273,0.0,0.0145,0.0481,0.01198,0.0,0.0,72.2708183755298,0.0,0.0,-360.0,360.0
186,12.5856103141974,-5.664410675262788,0.0,5.664410675262788,0.0,0.0164,0.0544,0.01356,0.0,0.0,6.27081837552973,0.0,0.0,-360.0,360.0
